L24/1726536/Reguladores.dss
! REGULADORES — gerados de UNREMT
! vreg = 122 V e band = 2 V — AJUSTES TIPICOS, nao de campo.
! kVA = 5000 adotado; a BDGD nao traz a potencia do regulador.
! O ptratio segue a tensao de cada alimentador (TP para 120 V).
New Transformer.REG_349334860_1 phases=1 windings=2 XHL=0.04
~ buses=[segm_349334909.1 segm_349334848.1] conns=[wye wye]
~ kVs=[19.9186 19.9186] kVAs=[5000 5000] %Rs=[0.01 0.01]
~ maxtap=1.10 mintap=0.90 numtaps=32
New RegControl.RC_REG_349334860_1 transformer=REG_349334860_1 winding=2 vreg=122 band=2 ptratio=165.99 delay=15 maxtapchange=1
New Transformer.REG_349334860_2 phases=1 windings=2 XHL=0.04
~ buses=[segm_349334909.2 segm_349334848.2] conns=[wye wye]
~ kVs=[19.9186 19.9186] kVAs=[5000 5000] %Rs=[0.01 0.01]
~ maxtap=1.10 mintap=0.90 numtaps=32
New RegControl.RC_REG_349334860_2 transformer=REG_349334860_2 winding=2 vreg=122 band=2 ptratio=165.99 delay=15 maxtapchange=1
New Transformer.REG_349334860_3 phases=1 windings=2 XHL=0.04
~ buses=[segm_349334909.3 segm_349334848.3] conns=[wye wye]
~ kVs=[19.9186 19.9186] kVAs=[5000 5000] %Rs=[0.01 0.01]
~ maxtap=1.10 mintap=0.90 numtaps=32
New RegControl.RC_REG_349334860_3 transformer=REG_349334860_3 winding=2 vreg=122 band=2 ptratio=165.99 delay=15 maxtapchange=1
New Transformer.REG_349334934_1 phases=1 windings=2 XHL=0.04
~ buses=[segm_349334983.1 segm_349334922.1] conns=[wye wye]
~ kVs=[19.9186 19.9186] kVAs=[5000 5000] %Rs=[0.01 0.01]
~ maxtap=1.10 mintap=0.90 numtaps=32
New RegControl.RC_REG_349334934_1 transformer=REG_349334934_1 winding=2 vreg=122 band=2 ptratio=165.99 delay=15 maxtapchange=1
New Transformer.REG_349334934_2 phases=1 windings=2 XHL=0.04
~ buses=[segm_349334983.2 segm_349334922.2] conns=[wye wye]
~ kVs=[19.9186 19.9186] kVAs=[5000 5000] %Rs=[0.01 0.01]
~ maxtap=1.10 mintap=0.90 numtaps=32
New RegControl.RC_REG_349334934_2 transformer=REG_349334934_2 winding=2 vreg=122 band=2 ptratio=165.99 delay=15 maxtapchange=1
New Transformer.REG_349334934_3 phases=1 windings=2 XHL=0.04
~ buses=[segm_349334983.3 segm_349334922.3] conns=[wye wye]
~ kVs=[19.9186 19.9186] kVAs=[5000 5000] %Rs=[0.01 0.01]
~ maxtap=1.10 mintap=0.90 numtaps=32
New RegControl.RC_REG_349334934_3 transformer=REG_349334934_3 winding=2 vreg=122 band=2 ptratio=165.99 delay=15 maxtapchange=1
New Transformer.REG_864343647_1 phases=1 windings=2 XHL=0.04
~ buses=[segm_864343685.1 segm_864343634.1] conns=[wye wye]
~ kVs=[19.9186 19.9186] kVAs=[5000 5000] %Rs=[0.01 0.01]
~ maxtap=1.10 mintap=0.90 numtaps=32
New RegControl.RC_REG_864343647_1 transformer=REG_864343647_1 winding=2 vreg=122 band=2 ptratio=165.99 delay=15 maxtapchange=1
New Transformer.REG_864343647_2 phases=1 windings=2 XHL=0.04
~ buses=[segm_864343685.2 segm_864343634.2] conns=[wye wye]
~ kVs=[19.9186 19.9186] kVAs=[5000 5000] %Rs=[0.01 0.01]
~ maxtap=1.10 mintap=0.90 numtaps=32
New RegControl.RC_REG_864343647_2 transformer=REG_864343647_2 winding=2 vreg=122 band=2 ptratio=165.99 delay=15 maxtapchange=1
New Transformer.REG_864343647_3 phases=1 windings=2 XHL=0.04
~ buses=[segm_864343685.3 segm_864343634.3] conns=[wye wye]
~ kVs=[19.9186 19.9186] kVAs=[5000 5000] %Rs=[0.01 0.01]
~ maxtap=1.10 mintap=0.90 numtaps=32
New RegControl.RC_REG_864343647_3 transformer=REG_864343647_3 winding=2 vreg=122 band=2 ptratio=165.99 delay=15 maxtapchange=1
New Transformer.REG_1007570054_1 phases=1 windings=2 XHL=0.04
~ buses=[segm_1007570092.1 segm_1007570041.1] conns=[wye wye]
~ kVs=[19.9186 19.9186] kVAs=[5000 5000] %Rs=[0.01 0.01]
~ maxtap=1.10 mintap=0.90 numtaps=32
New RegControl.RC_REG_1007570054_1 transformer=REG_1007570054_1 winding=2 vreg=122 band=2 ptratio=165.99 delay=15 maxtapchange=1
New Transformer.REG_1007570054_2 phases=1 windings=2 XHL=0.04
~ buses=[segm_1007570092.2 segm_1007570041.2] conns=[wye wye]
~ kVs=[19.9186 19.9186] kVAs=[5000 5000] %Rs=[0.01 0.01]
~ maxtap=1.10 mintap=0.90 numtaps=32
New RegControl.RC_REG_1007570054_2 transformer=REG_1007570054_2 winding=2 vreg=122 band=2 ptratio=165.99 delay=15 maxtapchange=1
New Transformer.REG_1007570054_3 phases=1 windings=2 XHL=0.04
~ buses=[segm_1007570092.3 segm_1007570041.3] conns=[wye wye]
~ kVs=[19.9186 19.9186] kVAs=[5000 5000] %Rs=[0.01 0.01]
~ maxtap=1.10 mintap=0.90 numtaps=32
New RegControl.RC_REG_1007570054_3 transformer=REG_1007570054_3 winding=2 vreg=122 band=2 ptratio=165.99 delay=15 maxtapchange=1
New Transformer.REG_1098581664_1 phases=1 windings=2 XHL=0.04
~ buses=[segm_1098581716.1 segm_1098581671.1] conns=[wye wye]
~ kVs=[19.9186 19.9186] kVAs=[5000 5000] %Rs=[0.01 0.01]
~ maxtap=1.10 mintap=0.90 numtaps=32
New RegControl.RC_REG_1098581664_1 transformer=REG_1098581664_1 winding=2 vreg=122 band=2 ptratio=165.99 delay=15 maxtapchange=1
New Transformer.REG_1098581664_2 phases=1 windings=2 XHL=0.04
~ buses=[segm_1098581716.2 segm_1098581671.2] conns=[wye wye]
~ kVs=[19.9186 19.9186] kVAs=[5000 5000] %Rs=[0.01 0.01]
~ maxtap=1.10 mintap=0.90 numtaps=32
New RegControl.RC_REG_1098581664_2 transformer=REG_1098581664_2 winding=2 vreg=122 band=2 ptratio=165.99 delay=15 maxtapchange=1
New Transformer.REG_1098581664_3 phases=1 windings=2 XHL=0.04
~ buses=[segm_1098581716.3 segm_1098581671.3] conns=[wye wye]
~ kVs=[19.9186 19.9186] kVAs=[5000 5000] %Rs=[0.01 0.01]
~ maxtap=1.10 mintap=0.90 numtaps=32
New RegControl.RC_REG_1098581664_3 transformer=REG_1098581664_3 winding=2 vreg=122 band=2 ptratio=165.99 delay=15 maxtapchange=1
New Transformer.REG_2219431339_1 phases=1 windings=2 XHL=0.04
~ buses=[segm_2219431310.1 segm_2219431278.1] conns=[wye wye]
~ kVs=[19.9186 19.9186] kVAs=[5000 5000] %Rs=[0.01 0.01]
~ maxtap=1.10 mintap=0.90 numtaps=32
New RegControl.RC_REG_2219431339_1 transformer=REG_2219431339_1 winding=2 vreg=122 band=2 ptratio=165.99 delay=15 maxtapchange=1
New Transformer.REG_2219431339_2 phases=1 windings=2 XHL=0.04
~ buses=[segm_2219431310.2 segm_2219431278.2] conns=[wye wye]
~ kVs=[19.9186 19.9186] kVAs=[5000 5000] %Rs=[0.01 0.01]
~ maxtap=1.10 mintap=0.90 numtaps=32
New RegControl.RC_REG_2219431339_2 transformer=REG_2219431339_2 winding=2 vreg=122 band=2 ptratio=165.99 delay=15 maxtapchange=1
New Transformer.REG_2219431339_3 phases=1 windings=2 XHL=0.04
~ buses=[segm_2219431310.3 segm_2219431278.3] conns=[wye wye]
~ kVs=[19.9186 19.9186] kVAs=[5000 5000] %Rs=[0.01 0.01]
~ maxtap=1.10 mintap=0.90 numtaps=32
New RegControl.RC_REG_2219431339_3 transformer=REG_2219431339_3 winding=2 vreg=122 band=2 ptratio=165.99 delay=15 maxtapchange=1
